*****************************************************************
* NXP PMGD280UN
*
* Polarity N-Channel
* Ratings 20V/3.40E-01OHMS/0.2A
*
* Date Created Tue Jun 23 04:46:13 2009
*
*****************************************************************
* Model Generated by Transim Technology
*           Copyright(c) 2004
*         All Rights Reserved
*    UNPUBLISHED LICENSED SOFTWARE
*           www.transim.com
*
* Contains Proprietary Information Which
* is The Property of Transim or it's licensees.
*
* Commercial Use or Resale Restricted by
* Transim License Agreement.
*
*****************************************************************

.SUBCKT PMGD280UN DRAIN GATE SOURCE

LD DRAIN 5 4e-10
RLD2 DRAIN 5 1.0053088
RLD1 5 4 0.0028
LG GATE 1 5.87775890822787e-10
RLG GATE 1 1.47724068867997
LS SOURCE 8 1.01346117276679e-09
RLS2 SOURCE 8 2.54710358860194
RLS1 8 7 0.00920225399683472

RDS 7 4 20000000 TC=-0.05

RS 6 7 0.0001

RD 3 4 0.252640323868458 TC=0.00268389741797069,4.73022727611366e-05
RBD 9 4 0.0193682320435504 TC=0.00268389741797069,4.73022727611366e-05
DBD 7 9 DBD

M1 3 2 6 6 MINT

RGS 2 6 80000000
CGS 2 6 7.23725490196078e-11
RG 1 2 28.5971988730016

* CGD
C11    11   12   1E-12
V11    11   0   0Vdc
G11    3 2 VALUE { V(13, 0)*I(V11) }
E11    12   0  3 2  1
E12    13   0  TABLE {V(12)}
+ -8	173
+ -5	168
+ -2	107
+ -1	82
+ -0.5	76
+ -0.2	70
+ -0.1	67
+ 0	46.5
+ 0.1	30
+ 0.2	30
+ 0.5	30
+ 1	28
+ 2	18
+ 5	12
+ 10	9
+ 20	7


.MODEL MINT NMOS(Vto=0.79 Kp=3.6183e+00 Nfs=850e+09 Eta=0
+ Level=3 L=1e-4 W=1e-4 Gamma=0 Phi=0.6 Is=1e-24
+ Js=0 Pb=0.8 Cj=0 Cjsw=0 Cgso=0 Cgdo=0 Cgbo=0
+ Tox=1e-07 Xj=0 U0=600 Vmax=1000)

.MODEL DBD D(Bv=22.40 Ibv=1.00E-06 Rs=1E-6 Is=2.23155535135724e-14
+ N=1 M=0.1 VJ=0.99 Fc=0.5 Cjo=7e-12 Tt=1.4e-08)

.ENDS


