Version 4
SHEET 1 1248 680
WIRE -80 -160 -128 -160
WIRE 16 -160 -80 -160
WIRE 304 -160 16 -160
WIRE 784 -160 368 -160
WIRE -128 -128 -128 -160
WIRE 16 -64 16 -160
WIRE 320 -32 112 -32
WIRE 448 -32 320 -32
WIRE 528 -32 448 -32
WIRE 320 -16 320 -32
WIRE 112 64 112 -32
WIRE 320 80 320 64
WIRE 432 80 320 80
WIRE 736 80 432 80
WIRE 784 80 784 -160
WIRE 784 80 736 80
WIRE 784 128 784 80
WIRE 16 144 16 16
WIRE 64 144 16 144
WIRE 432 176 432 80
WIRE 16 192 16 144
WIRE 432 320 432 256
WIRE 576 320 432 320
WIRE 784 320 784 208
WIRE 784 320 672 320
WIRE 112 336 112 160
WIRE 16 352 16 272
WIRE 528 384 528 -32
WIRE 656 384 656 368
WIRE 656 384 528 384
WIRE -128 416 -128 -48
WIRE 784 416 784 320
WIRE 784 416 -128 416
WIRE -128 480 -128 416
FLAG -128 480 0
FLAG 448 -32 VGATE
FLAG 736 80 VOUT
FLAG -80 -160 VEXT
FLAG 16 352 0
FLAG 112 336 0
SYMBOL voltage 432 160 R0
SYMATTR InstName V1
SYMATTR Value 3.7
SYMATTR SpiceLine Rser=10m
SYMBOL res 768 112 R0
SYMATTR InstName R1
SYMATTR Value 300
SYMBOL res 304 -32 R0
SYMATTR InstName R2
SYMATTR Value 1K
SYMBOL res 0 -80 R0
SYMATTR InstName R3
SYMATTR Value 0
SYMBOL AutoGenerated/PMGD280UN 96 112 R0
WINDOW 0 8 -40 Bottom 2
WINDOW 3 8 40 Top 2
SYMATTR InstName U1
SYMBOL AutoGenerated/PMGD280UN 624 336 R270
WINDOW 0 8 -40 Bottom 2
WINDOW 3 8 40 Top 2
SYMATTR InstName U2
SYMBOL schottky 304 -144 R270
WINDOW 0 32 32 VTop 2
WINDOW 3 0 32 VBottom 2
SYMATTR InstName D1
SYMATTR Value MBRS340
SYMBOL res 0 176 R0
SYMATTR InstName R4
SYMATTR Value 10K
SYMBOL voltage -128 -144 R0
SYMATTR InstName V2
SYMATTR Value 0
SYMBOL pmos 880 336 R0
SYMATTR InstName M1
SYMATTR Value Si4425BDY
TEXT 944 8 Left 2 !.tran 0 5 0
TEXT 984 176 Left 2 !*.dc V1 3 4 0.1
